Version 4
SHEET 1 904 1048
WIRE -48 592 -48 544
WIRE 448 624 448 608
WIRE 448 736 448 704
WIRE 592 736 448 736
WIRE 736 736 592 736
WIRE 800 736 736 736
WIRE 592 752 592 736
WIRE 448 816 448 736
WIRE 736 816 736 736
WIRE 592 848 592 832
WIRE 592 848 480 848
WIRE 592 864 592 848
WIRE 448 960 448 880
WIRE 592 960 592 944
WIRE 736 960 736 880
FLAG 448 528 0
FLAG 592 960 0
FLAG 448 960 0
FLAG 736 960 0
FLAG 800 736 VRef2+
FLAG -48 672 0
SYMBOL voltage 448 624 R180
WINDOW 0 24 96 Left 2
WINDOW 3 23 21 Left 2
WINDOW 123 0 0 Left 0
WINDOW 39 0 0 Left 0
SYMATTR InstName V2
SYMATTR Value 16V
SYMBOL polcap 720 816 R0
SYMATTR InstName C2
SYMATTR Value 47µF
SYMBOL res 432 608 R0
SYMATTR InstName R4
SYMATTR Value 1k
SYMBOL res 576 736 R0
SYMATTR InstName R5
SYMATTR Value 5k
SYMBOL res 576 848 R0
SYMATTR InstName R6
SYMATTR Value 5k
SYMBOL TL431AS 448 848 M0
SYMATTR InstName X1
SYMBOL voltage -48 576 R0
WINDOW 123 0 0 Left 0
WINDOW 39 0 0 Left 0
SYMATTR InstName V1
SYMATTR Value 15V
SYMBOL res -64 448 R0
SYMATTR InstName R1
SYMATTR Value 5k
TEXT 504 1032 Left 2 !.tran 5s startup
TEXT 512 992 Left 2 ;potentiometer
